Applications/Nadir_prediction/Data/case68.m
function mpc = case68
%% CASE68: Power flow data for 68 bus New England/New York system.
% Please see CASEFORMAT for details on the case file format.
%
% This is the data file for the 68-Bus Benchmark system with 16-machines
% and 86-lines. The data is partially taken from [1] with some of the 
% parameters modified to account for a more realistic model [2]. 
% This MATPOWER based data has been prepared by Sebastian Martinez from 
% Prof. Pulgar's research team at the University of Tennessee, Knoxville.
% 
% Last update: July, 2023.
%
%   References:
%   [1] Pal, Bikash, and Balarko Chaudhuri. Robust control in power 
%       systems. Springer Science & Business Media, 2006.
%   [2] Singh, A. K. and Pal, B. C. (2013) Report on the 68-bus, 
%       16-machine, 5-area system. Technical Report. IEEE Power and 
%       Energy Society Task Force on Benchmark Systems for Stability 
%       Controls.

%% MATPOWER Case Format : Version 2
mpc.version = '2';

%%-----  Power Flow Data  -----%%
%% system MVA base
mpc.baseMVA = 100;

%% bus data
%	bus_i	type    Pd      Qd      Gs	Bs	area   Vm       Va      baseKV	zone	Vmax	Vmin
mpc.bus = [
	1       2       0       0       0	0	1      1.045	0.00	345     1	1.06	0.94;
	2       2       0       0       0	0	1      0.980	0.00	345     1	1.06	0.94;
	3       2       0       0       0	0	1      0.983	0.00	345     1	1.06	0.94;
	4       2       0       0       0	0	1      0.997    0.00	345     1	1.06	0.94;
	5       2       0       0       0	0	1      1.011	0.00	345     1	1.06	0.94;
	6       2       0       0       0	0	1      1.050	0.00	345     1	1.06	0.94;
	7       2       0       0       0	0	1      1.063	0.00	345     1	1.06	0.94;
	8       2       0       0       0	0	1      1.030	0.00	345     1	1.06	0.94;
	9       2       0       0       0	0	1      1.025	0.00	345     1	1.06	0.94;
	10      2       0       0       0	0	2      1.010	0.00	345     1	1.06	0.94;
	11      2       0       0       0	0	2      1.000	0.00	345     1	1.06	0.94;
	12      2       0       0       0	0	2      1.0156	0.00	345     1	1.06	0.94;
	13      2       0       0       0	0	2      1.011	0.00	345     1	1.06	0.94;
	14      2       0       0       0	0	3      1.000	0.00	345     1	1.06	0.94;
	15      2       0       0       0	0	4      1.000	0.00	345     1	1.06	0.94;
	16      3       0       0   	0	0	5      1.000	0.00	345     1	1.06	0.94;
	17      1       6000    300     0	0	2      1.00 	0.00	345     1	1.06	0.94;
	18      1       2470    123     0	0	5      1.00 	0.00	345     1	1.06	0.94;
	19      1       0       0       0	0	1      1.00 	0.00	345     1	1.06	0.94;
	20      1       680     103     0	0	1      1.00 	0.00	345     1	1.06	0.94;
	21      1       274     115     0	0	1      1.00 	0.00	345     1	1.06	0.94;
	22      1       0       0       0	0	1      1.00 	0.00	345     1	1.06	0.94;
	23      1       248 	85  	0	0	1      1.00 	0.00	345     1	1.06	0.94;
	24      1       309    -92  	0	0   1      1.00 	0.00	345     1	1.06	0.94;
	25      1       224     47  	0	0	1      1.00 	0.00	345     1	1.06	0.94;
	26      1       139     17      0	0	1      1.00 	0.00	345     1	1.06	0.94;
	27      1       281     76  	0	0	1      1.00 	0.00	345     1	1.06	0.94;
	28      1       206     28  	0	0	1      1.00 	0.00	345     1	1.06	0.94;
	29      1       284 	27  	0	0	1      1.00 	0.00	345     1	1.06	0.94;
	30      1       0       0       0	0	2      1.00     0.00	345     1	1.06	0.94;
	31      1       0       0       0	0	2      1.00     0.00    345     1	1.06	0.94;
	32      1       0       0       0	0	2      1.00     0.00	345     1	1.06	0.94;
	33      1       112     0       0	0   2      1.00     0.00	345     1	1.06	0.94;
	34      1       0       0       0	0	2      1.00     0.00	345     1	1.06	0.94;
	35      1       0       0       0	0	2      1.00     0.00	345     1	1.06	0.94;
	36      1       102    -19.46   0	0	2      1.00     0.00	345     1	1.06	0.94;
	37      1       0       0       0	0	1      1.00     0.00	345     1	1.06	0.94;
	38      1       0       0       0	0	2      1.00     0.00	345     1	1.06	0.94;
	39      1       267 	12.6    0	0	2      1.00     0.00	345     1	1.06	0.94;
    40      1       65.63   23.53   0   0   2      1.00     0.00    345     1	1.06	0.94;
    41      1       1000    250     0   0   3      1.00     0.00    345     1	1.06	0.94;
    42      1       1150    250     0   0   4      1.00     0.00    345     1	1.06	0.94;
    43      1       0       0       0   0   2      1.00     0.00    345     1	1.06	0.94;
    44      1       267.55  4.84    0   0   2      1.00     0.00    345     1	1.06	0.94;
    45      1       208     21      0   0   2      1.00     0.00    345     1	1.06	0.94;
    46      1       150.7   28.5    0   0   2      1.00     0.00    345     1	1.06	0.94;
    47      1       203.12  32.59   0   0   2      1.00     0.00    345     1	1.06	0.94;
    48      1       241.20  2.2     0   0   2      1.00     0.00    345     1	1.06	0.94;
    49      1       164     29      0   0   2      1.00     0.00    345     1	1.06	0.94; 
    50      1       100    -147     0   0   2      1.00     0.00    345     1	1.06	0.94;
    51      1       337    -122     0   0   2      1.00     0.00    345     1	1.06	0.94;
    52      1       158     30      0   0   1      1.00     0.00    345     1	1.06	0.94;
    53      1       252.7   118.56  0   0   2      1.00     0.00    345     1	1.06	0.94;
    54      1       0       0       0   0   1      1.00     0.00    345     1	1.06	0.94; 
    55      1       322     2.0     0   0   1      1.00     0.00    345     1	1.06	0.94;
    56      1       200     73.6    0   0   1      1.00     0.00    345     1	1.06	0.94;
    57      1       0       0       0   0   1      1.00     0.00    345     1	1.06	0.94;
    58      1       0       0       0   0   1      1.00     0.00    345     1	1.06	0.94;
    59      1       234     84      0   0   1      1.00     0.00    345     1	1.06	0.94;
    60      1       208.8   70.8    0   0   1      1.00     0.00    345     1	1.06	0.94; 
    61      1       104     125     0   0   2      1.00     0.00    345     1	1.06	0.94;
    62      1       0       0       0   0   1      1.00     0.00    345     1	1.06	0.94;
    63      1       0       0       0   0   1      1.00     0.00    345     1	1.06	0.94;
    64      1       9.0     88      0   0   1      1.00     0.00    345     1	1.06	0.94;
    65      1       0       0       0   0   1      1.00     0.00    345     1	1.06	0.94;
    66      1       0       0       0   0   1      1.00     0.00    345     1	1.06	0.94;
    67      1       320     153     0   0   1      1.00     0.00    345     1	1.06	0.94;
    68      1       329     32      0   0   1      1.00     0.00    345     1	1.06	0.94
];

%% generator data
%	bus	 Pg       Qg       Qmax     Qmin      Vg        mBase	status	Pmax	Pmin	Pc1	Pc2	Qc1min	Qc1max	Qc2min	Qc2max	ramp_agc	ramp_10	ramp_30	ramp_q	apf
mpc.gen = [
	1	 250      0.00     9999    -9999     1.045      100     1       9999	0	0	0	0	0	0	0	0	0	0	0	0;
	2	 545      0.00     9999    -9999     0.980      100     1       9999    0	0	0	0	0	0	0	0	0	0	0	0;
	3	 650      0.00     9999    -9999     0.983      100     1       9999    0	0	0	0	0	0	0	0	0	0	0	0;
	4	 632      0.00     9999    -9999     0.997      100     1       9999    0	0	0	0	0	0	0	0	0	0	0	0;
	5	 505      0.00     9999    -9999     1.011      100     1       9999    0	0	0	0	0	0	0	0	0	0	0	0;
	6	 700      0.00     9999    -9999     1.050      100     1       9999    0	0	0	0	0	0	0	0	0	0	0	0;
	7	 560      0.00     9999    -9999     1.063      100     1       9999    0	0	0	0	0	0	0	0	0	0	0	0;
	8	 540      0.00     9999    -9999     1.030      100     1       9999    0	0	0	0	0	0	0	0	0	0	0	0;
	9	 800      0.00     9999    -9999     1.025      100     1       9999    0	0	0	0	0	0	0	0	0	0	0	0;
	10	 500	  0.00     9999    -9999     1.010	    100     1       9999    0	0	0	0	0	0	0	0	0	0	0	0;
    11	1000	  0.00     9999    -9999     1.000	    100     1       9999	0	0	0	0	0	0	0	0	0	0	0	0;
    12	1350	  0.00     9999    -9999     1.0156	    100     1       9999	0	0	0	0	0	0	0	0	0	0	0	0;
    13	3591	  0.00     9999    -9999     1.011	    100     1       9999	0	0	0	0	0	0	0	0	0	0	0	0;
    14	1785	  0.00     9999    -9999     1.000	    100     1       9999	0	0	0	0	0	0	0	0	0	0	0	0;
    15	1000	  0.00     9999    -9999     1.000	    100     1       9999	0	0	0	0	0	0	0	0	0	0	0	0;
    16	4000	  0.00     9999    -9999     1.000	    100     1       9999	0	0	0	0	0	0	0	0	0	0	0	0;
];

%% branch data
%	fbus	tbus	r       x       b       rateA	rateB	rateC	ratio	angle	status	angmin	angmax
mpc.branch = [
	1       54      0   	0.0181	0    	9999    9999    9999    1.0250  0       1       -360	360;
	2       58      0   	0.0250	0   	9999	9999	9999	1.0700  0       1       -360	360;
	3       62      0   	0.0200	0   	9999    9999    9999    1.0700  0       1       -360	360;
	4       19      0.0007	0.0142	0   	9999    9999    9999    1.0700  0       1       -360	360;
	5       20      0.0009  0.0180	0       9999    9999    9999	1.0090  0       1       -360	360;
	6       22      0   	0.0143	0   	9999    9999    9999    1.0250  0       1       -360	360;
	7       23      0.0005	0.0272	0   	9999    9999    9999    0       0       1       -360	360;
	8       25      0.0006	0.0232	0   	9999    9999    9999    1.0250  0       1       -360	360;
	9       29      0.0008	0.0156	0   	9999    9999    9999    1.0250  0       1       -360	360;
	10      31      0   	0.0260	0   	9999	9999	9999	1.0400  0       1       -360	360;
	11      32      0   	0.0130	0   	9999    9999    9999    1.0400  0       1       -360	360;
	12      36      0   	0.0075	0   	9999    9999    9999    1.0400  0       1       -360	360;
	13      17      0   	0.0033	0   	9999    9999    9999    1.0400  0       1       -360	360;
	14      41      0       0.0015	0       9999	9999	9999	1.0400  0       1       -360	360;
	15      42      0   	0.0015	0   	9999    9999    9999    1.0000  0       1       -360	360;
	16      18      0   	0.0030	0   	9999    9999    9999    1.0000  0       1       -360	360;
	17      36      0.0005	0.0045	0.3200  9999    9999    9999    1.0000  0       1       -360	360;
	18      49      0.0076	0.1141	1.1600  9999    9999    9999    0       0       1       -360	360;
	18      50      0.0012	0.0288	2.0600	9999    9999    9999    0       0       1       -360	360;
	19      68      0.0016  0.0195	0.3040  9999    9999    9999	0   	0       1       -360	360;
	20      19      0.0007	0.0138	0       9999    9999    9999    0   	0       1       -360	360;
	21      68      0.0008	0.0135	0.2548  9999    9999    9999    1.0600  0       1       -360	360;
	22      21      0.0008	0.0140	0.2565	9999    9999    9999    0       0       1       -360	360;
	23      22      0.0006	0.0096	0.1846	9999    9999    9999    0       0       1       -360	360;
	24      23      0.0022	0.0350	0.3610	9999    9999    9999    0       0       1       -360	360;
	24      68      0.0003	0.0059	0.0680	9999    9999    9999    0       0       1       -360	360;
	25      54      0.0070	0.0086	0.1460	9999    9999    9999	0       0       1       -360	360;
	26      25      0.0032	0.0323	0.5310	9999    9999    9999    0       0       1       -360	360;
	27      37      0.0013	0.0173	0.3216	9999    9999    9999    0       0       1       -360	360;
	27      26      0.0014	0.0147	0.2396	9999    9999    9999    0       0       1       -360	360;
	28      26      0.0043	0.0474	0.7802	9999    9999    9999    0       0       1       -360	360;
	29      26      0.0057	0.0625	1.0290  9999    9999    9999	0   	0       1       -360	360;
	29      28      0.0014	0.0151	0.2490  9999    9999    9999	0   	0       1       -360	360;
	30      53      0.0008	0.0074	0.4800  9999    9999    9999	0   	0       1       -360	360;
	30      61      0.00095	0.00915	0.5800	9999    9999    9999    0       0       1       -360	360;
	31      30      0.0013	0.0187	0.3330	9999    9999    9999    0       0       1       -360	360;
	31      53      0.0016  0.0163	0.2500  9999    9999    9999	0   	0       1       -360	360;
	32      30      0.0024	0.0288	0.4880	9999    9999    9999    0       0       1       -360	360;
	33      32      0.0008	0.0099	0.1680  9999    9999    9999	0       0       1       -360	360;
	34      33      0.0011	0.0157	0.2020	9999    9999    9999    0       0       1       -360	360;
	34      35      0.0001	0.0074	0       9999    9999    9999    0.9460  0       1       -360	360;
	36      34      0.0033	0.0111	1.4500	9999    9999    9999    0       0       1       -360	360;
	36      61      0.0011	0.0098	0.6800	9999    9999    9999    0       0       1       -360	360;
	37      68      0.0007	0.0089	0.1342	9999    9999    9999    0       0       1       -360	360;
	38      31      0.0011	0.0147	0.2470	9999    9999    9999    0       0       1       -360	360;
	38      33      0.0036	0.0444	0.6930  9999	9999	9999	0   	0       1       -360	360;
    40      41      0.0060  0.0840  3.1500  9999    9999    9999    0   	0       1       -360	360;
    40      48      0.0020  0.0220  1.2800  9999    9999    9999    0   	0       1       -360	360;
    41      42      0.0040  0.0600  2.2500  9999    9999    9999    0   	0       1       -360	360;
    42      18      0.0040  0.0600  2.2500  9999    9999    9999    0   	0       1       -360	360;
    43      17      0.0005  0.0276  0       9999    9999    9999    0   	0       1       -360	360;
    44      39      0       0.0411  0       9999    9999    9999    0   	0       1       -360	360;
    44      43      0.0001  0.0011  0       9999    9999    9999    0   	0       1       -360	360;
    45      35      0.0007  0.0175  1.3900  9999    9999    9999    0   	0       1       -360	360;
    45      39      0       0.0839  0       9999    9999    9999    0   	0       1       -360	360;
    45      44      0.0025  0.0730  0       9999    9999    9999    0   	0       1       -360	360;
    46      38      0.0022  0.0284  0.4300  9999    9999    9999    0   	0       1       -360	360;
    47      53      0.0013  0.0188  1.3100  9999    9999    9999    0   	0       1       -360	360;
    48      47      0.00125 0.0134  0.8000  9999    9999    9999    0   	0       1       -360	360;
    49      46      0.0018  0.0274  0.2700  9999    9999    9999    0   	0       1       -360	360;
    51      45      0.0004  0.0105  0.7200  9999    9999    9999    0   	0       1       -360	360;
    51      50      0.0009  0.0201  1.6200  9999    9999    9999    0   	0       1       -360	360;
    52      37      0.0007  0.0082  0.1319  9999    9999    9999    0   	0       1       -360	360;
    52      55      0.0011  0.0133  0.2138  9999    9999    9999    0   	0       1       -360	360;
    54      53      0.0035  0.0411  0.6987  9999    9999    9999    0   	0       1       -360	360;
    55      54      0.0013  0.0151  0.2572  9999    9999    9999    0   	0       1       -360	360;
    56      55      0.0013  0.0213  0.2214  9999    9999    9999    0   	0       1       -360	360;
    57      56      0.0008  0.0128  0.1342  9999    9999    9999    0   	0       1       -360	360;
    58      57      0.0002  0.0026  0.0434  9999    9999    9999    0   	0       1       -360	360;
    59      58      0.0006  0.0092  0.1130  9999    9999    9999    0   	0       1       -360	360;
    60      57      0.0008  0.0112  0.1476  9999    9999    9999    0   	0       1       -360	360;
    60      59      0.0004  0.0046  0.0780  9999    9999    9999    0   	0       1       -360	360;
    61      60      0.0023  0.0363  0.3804  9999    9999    9999    0   	0       1       -360	360;
    63      58      0.0007  0.0082  0.1389  9999    9999    9999    0   	0       1       -360	360;
    63      62      0.0004  0.0043  0.0729  9999    9999    9999    0   	0       1       -360	360;
    63      64      0.0016  0.0435  0       9999    9999    9999    1.0600  0       1       -360	360;
    65      62      0.0004  0.0043  0.0729  9999    9999    9999    0   	0       1       -360	360;
    65      64      0.0016  0.0435  0       9999    9999    9999    1.0600  0       1       -360	360;
    66      56      0.0008  0.0129  0.1382  9999    9999    9999    0   	0       1       -360	360;
    66      65      0.0009  0.0101  0.1723  9999    9999    9999    0   	0       1       -360	360;
    67      66      0.0018  0.0217  0.3660  9999    9999    9999    0   	0       1       -360	360;
    68      67      0.0009  0.0094  0.1710  9999    9999    9999    0   	0       1       -360	360;
    27      53      0.0320  0.3200  0.4100  9999    9999    9999    0   	0       1       -360	360;
];  

%% IBR data
%	bus	    Pg	    Qg	    Qmax	Qmin	Vg	    mBase	status	Pmax	Pmin	
mpc.ibr = [
% 	 5	    10	    10	    300	    -300	1.00	100	    1	    300	    0;
% 	16	    20      15	    300	    -300	0.99	100	    1	    300	    0;
% 	26	    30      20	    300	    -300	1.00	100	    1	    300	    0;
];
